
This summary information was generated by AeroDyn on 20-Aug-2020 at 16:32:57.

======  General Options  ============================================================================
            1  WakeMod        - Type of wake/induction model: Blade-Element/Momentum Theory
            2  AFAeroMod      - Type of blade airfoil aerodynamics model: Beddoes-Leishman unsteady model
            0  TwrPotent      - Type tower influence on wind based on potential flow around the tower: none
            F  TwrShadow      - Calculate tower influence on wind based on downstream tower shadow? No
            F  TwrAero        - Calculate tower aerodynamic loads? No
======  Blade-Element/Momentum Theory Options  ======================================================
            2  SkewMod        - Type of skewed-wake correction model: Pitt/Peters
            T  TipLoss        - Use the Prandtl tip-loss model? Yes
            T  HubLoss        - Use the Prandtl hub-loss model? Yes
            T  TanInd         - Include tangential induction in BEMT calculations? Yes
            T  AIDrag         - Include the drag term in the axial-induction calculation? Yes
            T  AIDrag         - Include the drag term in the tangential-induction calculation? Yes
   5.0000E-05  IndToler       - Convergence tolerance for BEM induction factors (radians)
======  Beddoes-Leishman Unsteady Airfoil Aerodynamics Options  =====================================
            3  UAMod          - Unsteady Aero Model: Minnema/Pierce variant (changes in Cc and Cm)
            T  FLookup        - Use a lookup for f'? Yes
======  Outputs  ====================================================================================
            9  NBlOuts        - Number of blade nodes selected for output
           30  NumBlNds       - Number of blade nodes in the analysis
               Blade nodes selected for output:  Output node  Analysis node
                                                 -----------  -------------
                                                           1              4
                                                           2              7
                                                           3             10
                                                           4             13
                                                           5             16
                                                           6             18
                                                           7             21
                                                           8             24
                                                           9             27
            0  NTwOuts        - Number of tower nodes selected for output
               Requested Output Channels:
               Col   Parameter  Units
               ----  ---------  -----
                  0  Time                 (s)                 
                  1  RtAeroCp             (-)                 
                  2  RtAeroCq             (-)                 
                  3  RtAeroCt             (-)                 
                  4  RtAeroFxh            (N)                 
                  5  RtAeroFyh            (N)                 
                  6  RtAeroFzh            (N)                 
                  7  RtAeroMxh            (N-m)               
                  8  RtAeroMyh            (N-m)               
                  9  RtAeroMzh            (N-m)               
                 10  RtAeroPwr            (W)                 
                 11  RtArea               (m^2)               
                 12  RtSkew               (deg)               
                 13  RtSpeed              (rpm)               
                 14  RtTSR                (-)                 
                 15  RtVAvgxh             (m/s)               
                 16  RtVAvgyh             (m/s)               
                 17  RtVAvgzh             (m/s)               


               Requested Output Channels at each blade station:
               Col   Parameter       Units
               ----  --------------  -----
