
This summary information was generated by ElastoDyn on 20-Aug-2020 at 16:32:56.


Turbine features:

            Upwind, three-bladed rotor with rigid hub.
            The model has 14 of 24 DOFs active (enabled) at start-up.
 Disabled   Platform horizontal surge translation DOF 
 Disabled   Platform horizontal sway translation DOF 
 Disabled   Platform vertical heave translation DOF 
 Disabled   Platform roll tilt rotation DOF 
 Disabled   Platform pitch tilt rotation DOF 
 Disabled   Platform yaw rotation DOF 
 Enabled    1st tower fore-aft bending mode DOF 
 Enabled    1st tower side-to-side bending mode DOF 
 Enabled    2nd tower fore-aft bending mode DOF 
 Enabled    2nd tower side-to-side bending mode DOF 
 Disabled   Nacelle yaw DOF 
 Disabled   Rotor-furl DOF 
 Enabled    Variable speed generator DOF 
 Disabled   Drivetrain rotational-flexibility DOF 
 Disabled   Tail-furl DOF 
 Enabled    1st flapwise bending-mode DOF of blade 1 
 Enabled    1st edgewise bending-mode DOF of blade 1 
 Enabled    2nd flapwise bending-mode DOF of blade 1 
 Enabled    1st flapwise bending-mode DOF of blade 2 
 Enabled    1st edgewise bending-mode DOF of blade 2 
 Enabled    2nd flapwise bending-mode DOF of blade 2 
 Enabled    1st flapwise bending-mode DOF of blade 3 
 Enabled    1st edgewise bending-mode DOF of blade 3 
 Enabled    2nd flapwise bending-mode DOF of blade 3 


Time steps:

    Structural            (s)        0.01000000


Some calculated parameters:

    Hub-Height            (m)           140.825
    Flexible Tower Length (m)           137.000
    Flexible Blade Length (m)            99.996


Rotor mass properties:

    Rotor Mass            (kg)       300398.062
    Rotor Inertia         (kg-m^2)297997344.000
                                        Blade 1      Blade 2      Blade 3
                                        -------      -------      -------
    Mass                  (kg)        60155.828    60155.828    60155.828
    Second Mass Moment    (kg-m^2) 88228512.000 88228512.000 88228512.000
    First Mass Moment     (kg-m)    1791447.250  1791447.250  1791447.250
    Center of Mass        (m)            29.780       29.780       29.780


Additional mass properties:

    Tower-top Mass        (kg)       718750.812
    Tower Mass            (kg)       858161.938
    Platform Mass         (kg)            0.000
    Mass Incl. Platform   (kg)      1576912.750


Interpolated tower properties:

Node  TwFract   HNodes  DHNodes  TMassDen    FAStiff    SSStiff
 (-)      (-)      (m)      (m)    (kg/m)     (Nm^2)     (Nm^2)
   1    0.025    3.425    6.850 10301.558  1.121E+12  1.121E+12
   2    0.075   10.275    6.850 10301.558  1.121E+12  1.121E+12
   3    0.125   17.125    6.850  9360.098  1.020E+12  1.020E+12
   4    0.175   23.975    6.850  9360.098  1.020E+12  1.020E+12
   5    0.225   30.825    6.850  8259.297  9.025E+11  9.025E+11
   6    0.275   37.675    6.850  8259.297  9.025E+11  9.025E+11
   7    0.325   44.525    6.850  7313.672  8.007E+11  8.007E+11
   8    0.375   51.375    6.850  7313.672  8.007E+11  8.007E+11
   9    0.425   58.225    6.850  6524.182  7.155E+11  7.155E+11
  10    0.475   65.075    6.850  6524.182  7.155E+11  7.155E+11
  11    0.525   71.925    6.850  5733.356  6.298E+11  6.298E+11
  12    0.575   78.775    6.850  5733.356  6.298E+11  6.298E+11
  13    0.625   85.625    6.850  4941.196  5.437E+11  5.437E+11
  14    0.675   92.475    6.850  4941.196  5.437E+11  5.437E+11
  15    0.725   99.325    6.850  4147.700  4.571E+11  4.571E+11
  16    0.775  106.175    6.850  4147.700  4.571E+11  4.571E+11
  17    0.825  113.025    6.850  3337.731  3.652E+11  3.652E+11
  18    0.875  119.875    6.850  3306.888  3.551E+11  3.551E+11
  19    0.925  126.725    6.850  2779.685  2.872E+11  2.872E+11
  20    0.975  133.575    6.850  2692.685  2.610E+11  2.610E+11


Interpolated blade 1 properties:

Node  BlFract   RNodes  DRNodes PitchAxis  StrcTwst  BMassDen    FlpStff    EdgStff
 (-)      (-)      (m)      (m)       (-)     (deg)    (kg/m)     (Nm^2)     (Nm^2)
   1    0.010    4.000    2.000     0.494    19.622  2134.020  7.714E+10  7.682E+10
   2    0.030    6.000    2.000     0.483    18.863  1888.983  6.970E+10  6.872E+10
   3    0.050    8.000    2.000     0.468    18.038  1683.556  6.014E+10  6.182E+10
   4    0.070   10.000    2.000     0.453    17.190  1492.603  4.998E+10  5.520E+10
   5    0.090   12.000    2.000     0.434    16.271  1357.239  4.015E+10  4.748E+10
   6    0.110   14.000    2.000     0.416    15.330  1220.564  3.140E+10  4.069E+10
   7    0.130   16.000    2.000     0.398    14.345  1081.198  2.483E+10  3.580E+10
   8    0.150   17.999    2.000     0.380    13.197   969.093  1.989E+10  3.200E+10
   9    0.170   19.999    2.000     0.363    11.942   874.902  1.601E+10  2.891E+10
  10    0.190   21.999    2.000     0.349    10.383   810.738  1.376E+10  2.679E+10
  11    0.210   23.999    2.000     0.335     8.804   754.302  1.182E+10  2.493E+10
  12    0.230   25.999    2.000     0.324     7.345   717.502  1.031E+10  2.374E+10
  13    0.250   27.999    2.000     0.314     6.159   689.077  9.059E+09  2.273E+10
  14    0.270   29.999    2.000     0.307     5.334   671.707  8.144E+09  2.195E+10
  15    0.290   31.999    2.000     0.301     5.058   666.111  7.519E+09  2.144E+10
  16    0.310   33.999    2.000     0.296     5.009   665.398  7.015E+09  2.103E+10
  17    0.330   35.999    2.000     0.292     5.010   663.425  6.507E+09  2.022E+10
  18    0.350   37.999    2.000     0.288     5.012   660.281  5.999E+09  1.933E+10
  19    0.370   39.999    2.000     0.286     5.015   653.846  5.487E+09  1.823E+10
  20    0.390   41.999    2.000     0.284     5.017   645.174  5.005E+09  1.716E+10
  21    0.410   43.998    2.000     0.283     5.019   634.553  4.550E+09  1.610E+10
  22    0.430   45.998    2.000     0.282     4.990   617.290  4.134E+09  1.511E+10
  23    0.450   47.998    2.000     0.282     4.938   598.902  3.729E+09  1.413E+10
  24    0.470   49.998    2.000     0.282     4.731   585.060  3.330E+09  1.313E+10
  25    0.490   51.998    2.000     0.282     4.486   567.713  2.940E+09  1.173E+10
  26    0.510   53.998    2.000     0.283     4.175   544.193  2.563E+09  9.609E+09
  27    0.530   55.998    2.000     0.284     3.855   523.562  2.231E+09  8.365E+09
  28    0.550   57.998    2.000     0.285     3.530   504.570  1.925E+09  7.619E+09
  29    0.570   59.998    2.000     0.285     3.266   478.931  1.666E+09  6.089E+09
  30    0.590   61.998    2.000     0.286     3.015   453.921  1.420E+09  4.701E+09
  31    0.610   63.998    2.000     0.286     2.799   434.284  1.215E+09  4.238E+09
  32    0.630   65.998    2.000     0.287     2.584   414.552  1.027E+09  3.796E+09
  33    0.650   67.998    2.000     0.288     2.369   394.709  8.583E+08  3.379E+09
  34    0.670   69.997    2.000     0.290     2.131   370.718  7.140E+08  2.776E+09
  35    0.690   71.997    2.000     0.291     1.885   345.318  5.787E+08  2.116E+09
  36    0.710   73.997    2.000     0.293     1.571   322.102  4.717E+08  1.826E+09
  37    0.730   75.997    2.000     0.296     1.215   298.321  3.724E+08  1.546E+09
  38    0.750   77.997    2.000     0.298     0.753   273.179  2.917E+08  1.290E+09
  39    0.770   79.997    2.000     0.301     0.236   247.630  2.234E+08  1.049E+09
  40    0.790   81.997    2.000     0.303    -0.323   221.773  1.646E+08  8.205E+08
  41    0.810   83.997    2.000     0.306    -0.884   197.727  1.217E+08  6.262E+08
  42    0.830   85.997    2.000     0.308    -1.436   173.853  8.334E+07  4.488E+08
  43    0.850   87.997    2.000     0.311    -1.910   148.805  5.747E+07  3.482E+08
  44    0.870   89.997    2.000     0.314    -2.358   124.040  3.630E+07  2.560E+08
  45    0.890   91.997    2.000     0.317    -2.764    99.704  2.225E+07  1.766E+08
  46    0.910   93.997    2.000     0.321    -3.151    78.230  1.312E+07  1.173E+08
  47    0.930   95.996    2.000     0.324    -3.529    58.150  6.380E+06  6.773E+07
  48    0.950   97.996    2.000     0.328    -3.877    35.918  3.021E+06  3.695E+07
  49    0.970   99.996    2.000     0.332    -4.215    17.721  5.027E+05  1.254E+07
  50    0.990  101.996    2.000     0.338    -4.524    13.895  2.555E+05  6.642E+06


Interpolated blade 2 properties:

Node  BlFract   RNodes  DRNodes PitchAxis  StrcTwst  BMassDen    FlpStff    EdgStff
 (-)      (-)      (m)      (m)       (-)     (deg)    (kg/m)     (Nm^2)     (Nm^2)
   1    0.010    4.000    2.000     0.494    19.622  2134.020  7.714E+10  7.682E+10
   2    0.030    6.000    2.000     0.483    18.863  1888.983  6.970E+10  6.872E+10
   3    0.050    8.000    2.000     0.468    18.038  1683.556  6.014E+10  6.182E+10
   4    0.070   10.000    2.000     0.453    17.190  1492.603  4.998E+10  5.520E+10
   5    0.090   12.000    2.000     0.434    16.271  1357.239  4.015E+10  4.748E+10
   6    0.110   14.000    2.000     0.416    15.330  1220.564  3.140E+10  4.069E+10
   7    0.130   16.000    2.000     0.398    14.345  1081.198  2.483E+10  3.580E+10
   8    0.150   17.999    2.000     0.380    13.197   969.093  1.989E+10  3.200E+10
   9    0.170   19.999    2.000     0.363    11.942   874.902  1.601E+10  2.891E+10
  10    0.190   21.999    2.000     0.349    10.383   810.738  1.376E+10  2.679E+10
  11    0.210   23.999    2.000     0.335     8.804   754.302  1.182E+10  2.493E+10
  12    0.230   25.999    2.000     0.324     7.345   717.502  1.031E+10  2.374E+10
  13    0.250   27.999    2.000     0.314     6.159   689.077  9.059E+09  2.273E+10
  14    0.270   29.999    2.000     0.307     5.334   671.707  8.144E+09  2.195E+10
  15    0.290   31.999    2.000     0.301     5.058   666.111  7.519E+09  2.144E+10
  16    0.310   33.999    2.000     0.296     5.009   665.398  7.015E+09  2.103E+10
  17    0.330   35.999    2.000     0.292     5.010   663.425  6.507E+09  2.022E+10
  18    0.350   37.999    2.000     0.288     5.012   660.281  5.999E+09  1.933E+10
  19    0.370   39.999    2.000     0.286     5.015   653.846  5.487E+09  1.823E+10
  20    0.390   41.999    2.000     0.284     5.017   645.174  5.005E+09  1.716E+10
  21    0.410   43.998    2.000     0.283     5.019   634.553  4.550E+09  1.610E+10
  22    0.430   45.998    2.000     0.282     4.990   617.290  4.134E+09  1.511E+10
  23    0.450   47.998    2.000     0.282     4.938   598.902  3.729E+09  1.413E+10
  24    0.470   49.998    2.000     0.282     4.731   585.060  3.330E+09  1.313E+10
  25    0.490   51.998    2.000     0.282     4.486   567.713  2.940E+09  1.173E+10
  26    0.510   53.998    2.000     0.283     4.175   544.193  2.563E+09  9.609E+09
  27    0.530   55.998    2.000     0.284     3.855   523.562  2.231E+09  8.365E+09
  28    0.550   57.998    2.000     0.285     3.530   504.570  1.925E+09  7.619E+09
  29    0.570   59.998    2.000     0.285     3.266   478.931  1.666E+09  6.089E+09
  30    0.590   61.998    2.000     0.286     3.015   453.921  1.420E+09  4.701E+09
  31    0.610   63.998    2.000     0.286     2.799   434.284  1.215E+09  4.238E+09
  32    0.630   65.998    2.000     0.287     2.584   414.552  1.027E+09  3.796E+09
  33    0.650   67.998    2.000     0.288     2.369   394.709  8.583E+08  3.379E+09
  34    0.670   69.997    2.000     0.290     2.131   370.718  7.140E+08  2.776E+09
  35    0.690   71.997    2.000     0.291     1.885   345.318  5.787E+08  2.116E+09
  36    0.710   73.997    2.000     0.293     1.571   322.102  4.717E+08  1.826E+09
  37    0.730   75.997    2.000     0.296     1.215   298.321  3.724E+08  1.546E+09
  38    0.750   77.997    2.000     0.298     0.753   273.179  2.917E+08  1.290E+09
  39    0.770   79.997    2.000     0.301     0.236   247.630  2.234E+08  1.049E+09
  40    0.790   81.997    2.000     0.303    -0.323   221.773  1.646E+08  8.205E+08
  41    0.810   83.997    2.000     0.306    -0.884   197.727  1.217E+08  6.262E+08
  42    0.830   85.997    2.000     0.308    -1.436   173.853  8.334E+07  4.488E+08
  43    0.850   87.997    2.000     0.311    -1.910   148.805  5.747E+07  3.482E+08
  44    0.870   89.997    2.000     0.314    -2.358   124.040  3.630E+07  2.560E+08
  45    0.890   91.997    2.000     0.317    -2.764    99.704  2.225E+07  1.766E+08
  46    0.910   93.997    2.000     0.321    -3.151    78.230  1.312E+07  1.173E+08
  47    0.930   95.996    2.000     0.324    -3.529    58.150  6.380E+06  6.773E+07
  48    0.950   97.996    2.000     0.328    -3.877    35.918  3.021E+06  3.695E+07
  49    0.970   99.996    2.000     0.332    -4.215    17.721  5.027E+05  1.254E+07
  50    0.990  101.996    2.000     0.338    -4.524    13.895  2.555E+05  6.642E+06


Interpolated blade 3 properties:

Node  BlFract   RNodes  DRNodes PitchAxis  StrcTwst  BMassDen    FlpStff    EdgStff
 (-)      (-)      (m)      (m)       (-)     (deg)    (kg/m)     (Nm^2)     (Nm^2)
   1    0.010    4.000    2.000     0.494    19.622  2134.020  7.714E+10  7.682E+10
   2    0.030    6.000    2.000     0.483    18.863  1888.983  6.970E+10  6.872E+10
   3    0.050    8.000    2.000     0.468    18.038  1683.556  6.014E+10  6.182E+10
   4    0.070   10.000    2.000     0.453    17.190  1492.603  4.998E+10  5.520E+10
   5    0.090   12.000    2.000     0.434    16.271  1357.239  4.015E+10  4.748E+10
   6    0.110   14.000    2.000     0.416    15.330  1220.564  3.140E+10  4.069E+10
   7    0.130   16.000    2.000     0.398    14.345  1081.198  2.483E+10  3.580E+10
   8    0.150   17.999    2.000     0.380    13.197   969.093  1.989E+10  3.200E+10
   9    0.170   19.999    2.000     0.363    11.942   874.902  1.601E+10  2.891E+10
  10    0.190   21.999    2.000     0.349    10.383   810.738  1.376E+10  2.679E+10
  11    0.210   23.999    2.000     0.335     8.804   754.302  1.182E+10  2.493E+10
  12    0.230   25.999    2.000     0.324     7.345   717.502  1.031E+10  2.374E+10
  13    0.250   27.999    2.000     0.314     6.159   689.077  9.059E+09  2.273E+10
  14    0.270   29.999    2.000     0.307     5.334   671.707  8.144E+09  2.195E+10
  15    0.290   31.999    2.000     0.301     5.058   666.111  7.519E+09  2.144E+10
  16    0.310   33.999    2.000     0.296     5.009   665.398  7.015E+09  2.103E+10
  17    0.330   35.999    2.000     0.292     5.010   663.425  6.507E+09  2.022E+10
  18    0.350   37.999    2.000     0.288     5.012   660.281  5.999E+09  1.933E+10
  19    0.370   39.999    2.000     0.286     5.015   653.846  5.487E+09  1.823E+10
  20    0.390   41.999    2.000     0.284     5.017   645.174  5.005E+09  1.716E+10
  21    0.410   43.998    2.000     0.283     5.019   634.553  4.550E+09  1.610E+10
  22    0.430   45.998    2.000     0.282     4.990   617.290  4.134E+09  1.511E+10
  23    0.450   47.998    2.000     0.282     4.938   598.902  3.729E+09  1.413E+10
  24    0.470   49.998    2.000     0.282     4.731   585.060  3.330E+09  1.313E+10
  25    0.490   51.998    2.000     0.282     4.486   567.713  2.940E+09  1.173E+10
  26    0.510   53.998    2.000     0.283     4.175   544.193  2.563E+09  9.609E+09
  27    0.530   55.998    2.000     0.284     3.855   523.562  2.231E+09  8.365E+09
  28    0.550   57.998    2.000     0.285     3.530   504.570  1.925E+09  7.619E+09
  29    0.570   59.998    2.000     0.285     3.266   478.931  1.666E+09  6.089E+09
  30    0.590   61.998    2.000     0.286     3.015   453.921  1.420E+09  4.701E+09
  31    0.610   63.998    2.000     0.286     2.799   434.284  1.215E+09  4.238E+09
  32    0.630   65.998    2.000     0.287     2.584   414.552  1.027E+09  3.796E+09
  33    0.650   67.998    2.000     0.288     2.369   394.709  8.583E+08  3.379E+09
  34    0.670   69.997    2.000     0.290     2.131   370.718  7.140E+08  2.776E+09
  35    0.690   71.997    2.000     0.291     1.885   345.318  5.787E+08  2.116E+09
  36    0.710   73.997    2.000     0.293     1.571   322.102  4.717E+08  1.826E+09
  37    0.730   75.997    2.000     0.296     1.215   298.321  3.724E+08  1.546E+09
  38    0.750   77.997    2.000     0.298     0.753   273.179  2.917E+08  1.290E+09
  39    0.770   79.997    2.000     0.301     0.236   247.630  2.234E+08  1.049E+09
  40    0.790   81.997    2.000     0.303    -0.323   221.773  1.646E+08  8.205E+08
  41    0.810   83.997    2.000     0.306    -0.884   197.727  1.217E+08  6.262E+08
  42    0.830   85.997    2.000     0.308    -1.436   173.853  8.334E+07  4.488E+08
  43    0.850   87.997    2.000     0.311    -1.910   148.805  5.747E+07  3.482E+08
  44    0.870   89.997    2.000     0.314    -2.358   124.040  3.630E+07  2.560E+08
  45    0.890   91.997    2.000     0.317    -2.764    99.704  2.225E+07  1.766E+08
  46    0.910   93.997    2.000     0.321    -3.151    78.230  1.312E+07  1.173E+08
  47    0.930   95.996    2.000     0.324    -3.529    58.150  6.380E+06  6.773E+07
  48    0.950   97.996    2.000     0.328    -3.877    35.918  3.021E+06  3.695E+07
  49    0.970   99.996    2.000     0.332    -4.215    17.721  5.027E+05  1.254E+07
  50    0.990  101.996    2.000     0.338    -4.524    13.895  2.555E+05  6.642E+06


Requested Outputs:


 Col   Parameter            Units               
 ---   ---------------      ---------------     
   0   Time                 (s)                 
   1   BldPitch1            (deg)               
   2   GenSpeed             (rpm)               
   3   HSSBrTq              (kN-m)              
   4   HSShftTq             (kN-m)              
   5   LSSTipMya            (kN-m)              
   6   LSSTipMys            (kN-m)              
   7   LSSTipMza            (kN-m)              
   8   LSSTipMzs            (kN-m)              
   9   LSSTipPxa            (deg)               
  10   LSShftFxa            (kN)                
  11   LSShftFya            (kN)                
  12   LSShftFys            (kN)                
  13   LSShftFza            (kN)                
  14   LSShftFzs            (kN)                
  15   LSShftMxa            (kN-m)              
  16   NcIMUTAxs            (m/s^2)             
  17   NcIMUTAys            (m/s^2)             
  18   PtchPMzc1            (deg)               
  19   PtchPMzc2            (deg)               
  20   PtchPMzc3            (deg)               
  21   RootFxb1             (kN)                
  22   RootFxb2             (kN)                
  23   RootFxb3             (kN)                
  24   RootFxc1             (kN)                
  25   RootFxc2             (kN)                
  26   RootFxc3             (kN)                
  27   RootFyb1             (kN)                
  28   RootFyb2             (kN)                
  29   RootFyb3             (kN)                
  30   RootFyc1             (kN)                
  31   RootFyc2             (kN)                
  32   RootFyc3             (kN)                
  33   RootFzb1             (kN)                
  34   RootFzb2             (kN)                
  35   RootFzb3             (kN)                
  36   RootMxb1             (kN-m)              
  37   RootMxb2             (kN-m)              
  38   RootMxb3             (kN-m)              
  39   RootMxc1             (kN-m)              
  40   RootMxc2             (kN-m)              
  41   RootMxc3             (kN-m)              
  42   RootMyb1             (kN-m)              
  43   RootMyb2             (kN-m)              
  44   RootMyb3             (kN-m)              
  45   RootMyc1             (kN-m)              
  46   RootMyc2             (kN-m)              
  47   RootMyc3             (kN-m)              
  48   RootMzb1             (kN-m)              
  49   RootMzb2             (kN-m)              
  50   RootMzb3             (kN-m)              
  51   RotSpeed             (rpm)               
  52   Spn1FLxb1            (kN)                
  53   Spn1FLyb1            (kN)                
  54   Spn1FLzb1            (kN)                
  55   Spn1MLxb1            (kN-m)              
  56   Spn1MLyb1            (kN-m)              
  57   Spn1MLzb1            (kN-m)              
  58   Spn2FLxb1            (kN)                
  59   Spn2FLyb1            (kN)                
  60   Spn2FLzb1            (kN)                
  61   Spn2MLxb1            (kN-m)              
  62   Spn2MLyb1            (kN-m)              
  63   Spn2MLzb1            (kN-m)              
  64   Spn3FLxb1            (kN)                
  65   Spn3FLyb1            (kN)                
  66   Spn3FLzb1            (kN)                
  67   Spn3MLxb1            (kN-m)              
  68   Spn3MLyb1            (kN-m)              
  69   Spn3MLzb1            (kN-m)              
  70   Spn4FLxb1            (kN)                
  71   Spn4FLyb1            (kN)                
  72   Spn4FLzb1            (kN)                
  73   Spn4MLxb1            (kN-m)              
  74   Spn4MLyb1            (kN-m)              
  75   Spn4MLzb1            (kN-m)              
  76   Spn5FLxb1            (kN)                
  77   Spn5FLyb1            (kN)                
  78   Spn5FLzb1            (kN)                
  79   Spn5MLxb1            (kN-m)              
  80   Spn5MLyb1            (kN-m)              
  81   Spn5MLzb1            (kN-m)              
  82   Spn6FLxb1            (kN)                
  83   Spn6FLyb1            (kN)                
  84   Spn6FLzb1            (kN)                
  85   Spn6MLxb1            (kN-m)              
  86   Spn6MLyb1            (kN-m)              
  87   Spn6MLzb1            (kN-m)              
  88   Spn7FLxb1            (kN)                
  89   Spn7FLyb1            (kN)                
  90   Spn7FLzb1            (kN)                
  91   Spn7MLxb1            (kN-m)              
  92   Spn7MLyb1            (kN-m)              
  93   Spn7MLzb1            (kN-m)              
  94   Spn8FLxb1            (kN)                
  95   Spn8FLyb1            (kN)                
  96   Spn8FLzb1            (kN)                
  97   Spn8MLxb1            (kN-m)              
  98   Spn8MLyb1            (kN-m)              
  99   Spn8MLzb1            (kN-m)              
 100   Spn9FLxb1            (kN)                
 101   Spn9FLyb1            (kN)                
 102   Spn9FLzb1            (kN)                
 103   Spn9MLxb1            (kN-m)              
 104   Spn9MLyb1            (kN-m)              
 105   Spn9MLzb1            (kN-m)              
 106   TipClrnc1            (m)                 
 107   TipClrnc2            (m)                 
 108   TipClrnc3            (m)                 
 109   TipDxb1              (m)                 
 110   TipDxb2              (m)                 
 111   TipDxb3              (m)                 
 112   TipDxc1              (m)                 
 113   TipDxc2              (m)                 
 114   TipDxc3              (m)                 
 115   TipDyb1              (m)                 
 116   TipDyb2              (m)                 
 117   TipDyb3              (m)                 
 118   TipDyc1              (m)                 
 119   TipDyc2              (m)                 
 120   TipDyc3              (m)                 
 121   TipDzb1              (m)                 
 122   TipDzb2              (m)                 
 123   TipDzb3              (m)                 
 124   TipDzc1              (m)                 
 125   TipDzc2              (m)                 
 126   TipDzc3              (m)                 
 127   TwrBsFxt             (kN)                
 128   TwrBsFyt             (kN)                
 129   TwrBsFzt             (kN)                
 130   TwrBsMxt             (kN-m)              
 131   TwrBsMyt             (kN-m)              
 132   TwrBsMzt             (kN-m)              
 133   YawBrFxn             (kN)                
 134   YawBrFxp             (kN)                
 135   YawBrFyn             (kN)                
 136   YawBrFyp             (kN)                
 137   YawBrFzn             (kN)                
 138   YawBrMxn             (kN-m)              
 139   YawBrMxp             (kN-m)              
 140   YawBrMyn             (kN-m)              
 141   YawBrMyp             (kN-m)              
 142   YawBrMzn             (kN-m)              
 143   YawBrTDxt            (m)                 
 144   YawBrTDyt            (m)                 
 145   YawPzn               (deg)               


  Requested Output Channels at each blade station:
 Col   Parameter            Units               
 ---   ---------------      ---------------     
